  159

Au      0.486573    0.843403    1.325344
Au      3.850530    0.830370    3.826551
Au      2.090006    0.841477    6.439388
Au      3.054659    2.463029    1.256884
Au      1.290139    2.465098    3.869684
Au      4.657218    2.461373    6.370717
Au      5.630364    0.843403    1.325344
Au      8.994327    0.830370    3.826551
Au      7.233802    0.841477    6.439388
Au      8.198450    2.463029    1.256884
Au      6.433935    2.465098    3.869684
Au      9.801015    2.461373    6.370717
Au      0.486573    4.138869    1.325344
Au      3.850530    4.125835    3.826551
Au      2.090006    4.136943    6.439388
Au      3.054659    5.758495    1.256884
Au      1.290139    5.760564    3.869684
Au      4.657218    5.756844    6.370717
Au      5.630364    4.138869    1.325344
Au      8.994327    4.125835    3.826551
Au      7.233802    4.136943    6.439388
Au      8.198450    5.758495    1.256884
Au      6.433935    5.760564    3.869684
Au      9.801015    5.756844    6.370717
Au      0.486573    7.434340    1.325344
Au      3.850530    7.421306    3.826551
Au      2.090006    7.432414    6.439388
Au      3.054659    9.053966    1.256884
Au      1.290139    9.056035    3.869684
Au      4.657218    9.052315    6.370717
Au      5.630364    7.434340    1.325344
Au      8.994327    7.421306    3.826551
Au      7.233802    7.432414    6.439388
Au      8.198450    9.053966    1.256884
Au      6.433935    9.056035    3.869684
Au      9.801015    9.052315    6.370717
Au      0.486573    0.843403    9.029034
Au      3.850530    0.830370   11.530242
Au      2.090006    0.841477   14.143078
Au      3.054659    2.463029    8.960574
Au      1.290139    2.465098   11.573374
Au      4.657218    2.461373   14.074407
Au      5.630364    0.843403    9.029034
Au      8.994327    0.830370   11.530242
Au      7.233802    0.841477   14.143078
Au      8.198450    2.463029    8.960574
Au      6.433935    2.465098   11.573374
Au      9.801015    2.461373   14.074407
Au      0.486573    4.138869    9.029034
Au      3.850530    4.125835   11.530242
Au      2.090006    4.136943   14.143078
Au      3.054659    5.758495    8.960574
Au      1.290139    5.760564   11.573374
Au      4.657218    5.756844   14.074407
Au      5.630364    4.138869    9.029034
Au      8.994327    4.125835   11.530242
Au      7.233802    4.136943   14.143078
Au      8.198450    5.758495    8.960574
Au      6.433935    5.760564   11.573374
Au      9.801015    5.756844   14.074407
Au      0.486573    7.434340    9.029034
Au      3.850530    7.421306   11.530242
Au      2.090006    7.432414   14.143078
Au      3.054659    9.053966    8.960574
Au      1.290139    9.056035   11.573374
Au      4.657218    9.052315   14.074407
Au      5.630364    7.434340    9.029034
Au      8.994327    7.421306   11.530242
Au      7.233802    7.432414   14.143078
Au      8.198450    9.053966    8.960574
Au      6.433935    9.056035   11.573374
Au      9.801015    9.052315   14.074407
Au      0.486573    0.843403   16.732723
Au      3.054659    2.463029   16.664264
Au      5.630364    0.843403   16.732723
Au      8.198450    2.463029   16.664264
Au      0.486573    4.138869   16.732723
Au      3.054659    5.758495   16.664264
Au      5.630364    4.138869   16.732723
Au      8.198450    5.758495   16.664264
Au      0.486573    7.434340   16.732723
Au      3.054659    9.053966   16.664264
Au      5.630364    7.434340   16.732723
Au      8.198450    9.053966   16.664264
O       3.025699    6.032483   19.355689
H       2.214465    5.764117   19.817128
H       3.738432    5.587260   19.842413
Au      0.486573    0.843403   38.925374
Au      3.850530    0.830370   41.426575
Au      2.090006    0.841477   44.039375
Au      3.054659    2.463029   38.856875
Au      1.290139    2.465098   41.469675
Au      4.657218    2.461373   43.970675
Au      5.630364    0.843403   38.925374
Au      8.994327    0.830370   41.426575
Au      7.233802    0.841477   44.039375
Au      8.198450    2.463029   38.856875
Au      6.433935    2.465098   41.469675
Au      9.801015    2.461373   43.970675
Au      0.486573    4.138869   38.925374
Au      3.850530    4.125835   41.426575
Au      2.090006    4.136943   44.039375
Au      3.054659    5.758495   38.856875
Au      1.290139    5.760564   41.469675
Au      4.657218    5.756844   43.970675
Au      5.630364    4.138869   38.925374
Au      8.994327    4.125835   41.426575
Au      7.233802    4.136943   44.039375
Au      8.198450    5.758495   38.856875
Au      6.433935    5.760564   41.469675
Au      9.801015    5.756844   43.970675
Au      0.486573    7.434340   38.925374
Au      3.850530    7.421306   41.426575
Au      2.090006    7.432414   44.039375
Au      3.054659    9.053966   38.856875
Au      1.290139    9.056035   41.469675
Au      4.657218    9.052315   43.970675
Au      5.630364    7.434340   38.925374
Au      8.994327    7.421306   41.426575
Au      7.233802    7.432414   44.039375
Au      8.198450    9.053966   38.856875
Au      6.433935    9.056035   41.469675
Au      9.801015    9.052315   43.970675
Au      0.486573    0.843403   46.629075
Au      3.850530    0.830370   49.130274
Au      2.090006    0.841477   51.743074
Au      3.054659    2.463029   46.560575
Au      1.290139    2.465098   49.173375
Au      4.657218    2.461373   51.674374
Au      5.630364    0.843403   46.629075
Au      8.994327    0.830370   49.130274
Au      7.233802    0.841477   51.743074
Au      8.198450    2.463029   46.560575
Au      6.433935    2.465098   49.173375
Au      9.801015    2.461373   51.674374
Au      0.486573    4.138869   46.629075
Au      3.850530    4.125835   49.130274
Au      2.090006    4.136943   51.743074
Au      3.054659    5.758495   46.560575
Au      1.290139    5.760564   49.173375
Au      4.657218    5.756844   51.674374
Au      5.630364    4.138869   46.629075
Au      8.994327    4.125835   49.130274
Au      7.233802    4.136943   51.743074
Au      8.198450    5.758495   46.560575
Au      6.433935    5.760564   49.173375
Au      9.801015    5.756844   51.674374
Au      0.486573    7.434340   46.629075
Au      3.850530    7.421306   49.130274
Au      2.090006    7.432414   51.743074
Au      3.054659    9.053966   46.560575
Au      1.290139    9.056035   49.173375
Au      4.657218    9.052315   51.674374
Au      5.630364    7.434340   46.629075
Au      8.994327    7.421306   49.130274
Au      7.233802    7.432414   51.743074
Au      8.198450    9.053966   46.560575
Au      6.433935    9.056035   49.173375
Au      9.801015    9.052315   51.674374
