  211

Pd      0.405315    2.106079    1.146404
Pd      2.837205    0.702027    1.146404
Pd      1.215945    0.702027    3.439212
Pd      3.647835    2.106079    3.439212
Pd      2.026575    2.106079    5.732020
Pd      4.458465    0.702027    5.732020
Pd      0.405315    2.106079    8.024828
Pd      2.837205    0.702027    8.024828
Pd      1.215945    0.702027   10.317636
Pd      3.647835    2.106079   10.317636
Pd      2.026575    2.106079   12.610444
Pd      4.458465    0.702027   12.610444
Pd      0.405315    2.106079   14.903252
Pd      2.837205    0.702027   14.903252
Pd      1.215945    0.702027   17.196060
Pd      3.647835    2.106079   17.196060
Pd      2.026575    2.106079   19.488868
Pd      4.458465    0.702027   19.488868
Pd      5.269095    2.106079    1.146404
Pd      7.700985    0.702027    1.146404
Pd      6.079725    0.702027    3.439212
Pd      8.511616    2.106079    3.439212
Pd      6.890355    2.106079    5.732020
Pd      9.322246    0.702027    5.732020
Pd      5.269095    2.106079    8.024828
Pd      7.700985    0.702027    8.024828
Pd      6.079725    0.702027   10.317636
Pd      8.511616    2.106079   10.317636
Pd      6.890355    2.106079   12.610444
Pd      9.322246    0.702027   12.610444
Pd      5.269095    2.106079   14.903252
Pd      7.700985    0.702027   14.903252
Pd      6.079725    0.702027   17.196060
Pd      8.511616    2.106079   17.196060
Pd      6.890355    2.106079   19.488868
Pd      9.322246    0.702027   19.488868
Pd      0.405315    4.914184    1.146404
Pd      2.837205    3.510131    1.146404
Pd      1.215945    3.510131    3.439212
Pd      3.647835    4.914184    3.439212
Pd      2.026575    4.914184    5.732020
Pd      4.458465    3.510131    5.732020
Pd      0.405315    4.914184    8.024828
Pd      2.837205    3.510131    8.024828
Pd      1.215945    3.510131   10.317636
Pd      3.647835    4.914184   10.317636
Pd      2.026575    4.914184   12.610444
Pd      4.458465    3.510131   12.610444
Pd      0.405315    4.914184   14.903252
Pd      2.837205    3.510131   14.903252
Pd      1.215945    3.510131   17.196060
Pd      3.647835    4.914184   17.196060
Pd      2.026575    4.914184   19.488868
Pd      4.458465    3.510131   19.488868
Pd      5.269095    4.914184    1.146404
Pd      7.700985    3.510131    1.146404
Pd      6.079725    3.510131    3.439212
Pd      8.511616    4.914184    3.439212
Pd      6.890355    4.914184    5.732020
Pd      9.322246    3.510131    5.732020
Pd      5.269095    4.914184    8.024828
Pd      7.700985    3.510131    8.024828
Pd      6.079725    3.510131   10.317636
Pd      8.511616    4.914184   10.317636
Pd      6.890355    4.914184   12.610444
Pd      9.322246    3.510131   12.610444
Pd      5.269095    4.914184   14.903252
Pd      7.700985    3.510131   14.903252
Pd      6.079725    3.510131   17.196060
Pd      8.511616    4.914184   17.196060
Pd      6.890355    4.914184   19.488868
Pd      9.322246    3.510131   19.488868
Pd      0.405315    7.722289    1.146404
Pd      2.837205    6.318236    1.146404
Pd      1.215945    6.318236    3.439212
Pd      3.647835    7.722289    3.439212
Pd      2.026575    7.722289    5.732020
Pd      4.458465    6.318236    5.732020
Pd      0.405315    7.722289    8.024828
Pd      2.837205    6.318236    8.024828
Pd      1.215945    6.318236   10.317636
Pd      3.647835    7.722289   10.317636
Pd      2.026575    7.722289   12.610444
Pd      4.458465    6.318236   12.610444
Pd      0.405315    7.722289   14.903252
Pd      2.837205    6.318236   14.903252
Pd      1.215945    6.318236   17.196060
Pd      3.647835    7.722289   17.196060
Pd      2.026575    7.722289   19.488868
Pd      4.458465    6.318236   19.488868
Pd      5.269095    7.722289    1.146404
Pd      7.700985    6.318236    1.146404
Pd      6.079725    6.318236    3.439212
Pd      8.511616    7.722289    3.439212
Pd      6.890355    7.722289    5.732020
Pd      9.322246    6.318236    5.732020
Pd      5.269095    7.722289    8.024828
Pd      7.700985    6.318236    8.024828
Pd      6.079725    6.318236   10.317636
Pd      8.511616    7.722289   10.317636
Pd      6.890355    7.722289   12.610444
Pd      9.322246    6.318236   12.610444
Pd      5.269095    7.722289   14.903252
Pd      7.700985    6.318236   14.903252
Pd      6.079725    6.318236   17.196060
Pd      8.511616    7.722289   17.196060
Pd      6.890355    7.722289   19.488868
Pd      9.322246    6.318236   19.488868
Pd      0.405315   10.530394    1.146404
Pd      2.837205    9.126341    1.146404
Pd      1.215945    9.126341    3.439212
Pd      3.647835   10.530394    3.439212
Pd      2.026575   10.530394    5.732020
Pd      4.458465    9.126341    5.732020
Pd      0.405315   10.530394    8.024828
Pd      2.837205    9.126341    8.024828
Pd      1.215945    9.126341   10.317636
Pd      3.647835   10.530394   10.317636
Pd      2.026575   10.530394   12.610444
Pd      4.458465    9.126341   12.610444
Pd      0.405315   10.530394   14.903252
Pd      2.837205    9.126341   14.903252
Pd      1.215945    9.126341   17.196060
Pd      3.647835   10.530394   17.196060
Pd      2.026575   10.530394   19.488868
Pd      4.458465    9.126341   19.488868
Pd      5.269095   10.530394    1.146404
Pd      7.700985    9.126341    1.146404
Pd      6.079725    9.126341    3.439212
Pd      8.511616   10.530394    3.439212
Pd      6.890355   10.530394    5.732020
Pd      9.322246    9.126341    5.732020
Pd      5.269095   10.530394    8.024828
Pd      7.700985    9.126341    8.024828
Pd      6.079725    9.126341   10.317636
Pd      8.511616   10.530394   10.317636
Pd      6.890355   10.530394   12.610444
Pd      9.322246    9.126341   12.610444
Pd      5.269095   10.530394   14.903252
Pd      7.700985    9.126341   14.903252
Pd      6.079725    9.126341   17.196060
Pd      8.511616   10.530394   17.196060
Pd      6.890355   10.530394   19.488868
Pd      9.322246    9.126341   19.488868
Pd      0.405315   10.530393   21.781676
Pd      0.405315    7.722288   21.781676
Pd      0.405315    4.914184   21.781676
Pd      0.405315    2.106079   21.781676
Pd      2.837205    9.126341   21.781676
Pd      2.837205    6.318236   21.781676
Pd      2.837205    3.510131   21.781676
Pd      2.837205    0.702026   21.781676
Pd      5.269095   10.530393   21.781676
Pd      5.269095    7.722288   21.781676
Pd      5.269095    4.914184   21.781676
Pd      5.269095    2.106079   21.781676
Pd      7.700986    9.126341   21.781676
Pd      7.700986    6.318236   21.781676
Pd      7.700986    3.510131   21.781676
Pd      7.700986    0.702026   21.781676
Pd      1.215945    9.126341   24.074484
Pd      1.215945    6.318236   24.074484
Pd      1.215945    3.510131   24.074484
Pd      1.215945    0.702026   24.074484
Pd      3.647835   10.530393   24.074484
Pd      3.647835    7.722288   24.074484
Pd      3.647835    4.914184   24.074484
Pd      3.647835    2.106079   24.074484
Pd      6.079725    9.126341   24.074484
Pd      6.079725    6.318236   24.074484
Pd      6.079725    3.510131   24.074484
Pd      6.079725    0.702026   24.074484
Pd      8.511616   10.530393   24.074484
Pd      8.511616    7.722288   24.074484
Pd      8.511616    4.914184   24.074484
Pd      8.511616    2.106079   24.074484
Pd      2.026575   10.530393   26.367292
Pd      2.026575    7.722288   26.367292
Pd      2.026575    4.914184   26.367292
Pd      2.026575    2.106079   26.367292
Pd      4.458465    9.126341   26.367292
Pd      4.458465    6.318236   26.367292
Pd      4.458465    3.510131   26.367292
Pd      4.458465    0.702026   26.367292
Pd      6.890355   10.530393   26.367292
Pd      6.890355    7.722288   26.367292
Pd      6.890355    4.914184   26.367292
Pd      6.890355    2.106079   26.367292
Pd      9.322246    9.126341   26.367292
Pd      9.322246    6.318236   26.367292
Pd      9.322246    3.510131   26.367292
Pd      9.322246    0.702026   26.367292
Pd      0.405315   10.530393   28.660100
Pd      0.405315    7.722288   28.660100
Pd      0.405315    4.914184   28.660100
Pd      0.405315    2.106079   28.660100
Pd      2.837205    9.126341   28.660100
Pd      2.837205    6.318236   28.660100
Pd      2.837205    3.510131   28.660100
Pd      2.837205    0.702026   28.660100
Pd      5.269095   10.530393   28.660100
Pd      5.269095    7.722288   28.660100
Pd      5.269095    4.914184   28.660100
Pd      5.269095    2.106079   28.660100
Pd      7.700986    9.126341   28.660100
Pd      7.700986    6.318236   28.660100
Pd      7.700986    3.510131   28.660100
Pd      7.700986    0.702026   28.660100
O        5.16120787       4.90668997      31.50742295
H        4.56489887       5.66992897      31.50742295
H        4.56489887       4.14345097      31.50742295
