  231

Pd      0.297762    2.025379    1.146404
Pd      2.729652    0.621326    1.146404
Pd      1.108391    0.621326    3.439212
Pd      3.540281    2.025379    3.439212
Pd      1.919021    2.025379    5.732020
Pd      4.350911    0.621326    5.732020
Pd      0.297762    2.025379    8.024828
Pd      2.729652    0.621326    8.024828
Pd      1.108391    0.621326   10.317636
Pd      3.540281    2.025379   10.317636
Pd      1.919021    2.025379   12.610444
Pd      4.350911    0.621326   12.610444
Pd      5.161542    2.025379    1.146404
Pd      7.593432    0.621326    1.146404
Pd      5.972171    0.621326    3.439212
Pd      8.404061    2.025379    3.439212
Pd      6.782801    2.025379    5.732020
Pd      9.214691    0.621326    5.732020
Pd      5.161542    2.025379    8.024828
Pd      7.593432    0.621326    8.024828
Pd      5.972171    0.621326   10.317636
Pd      8.404061    2.025379   10.317636
Pd      6.782801    2.025379   12.610444
Pd      9.214691    0.621326   12.610444
Pd      0.297762    4.833484    1.146404
Pd      2.729652    3.429431    1.146404
Pd      1.108391    3.429431    3.439212
Pd      3.540281    4.833484    3.439212
Pd      1.919021    4.833484    5.732020
Pd      4.350911    3.429431    5.732020
Pd      0.297762    4.833484    8.024828
Pd      2.729652    3.429431    8.024828
Pd      1.108391    3.429431   10.317636
Pd      3.540281    4.833484   10.317636
Pd      1.919021    4.833484   12.610444
Pd      4.350911    3.429431   12.610444
Pd      5.161542    4.833484    1.146404
Pd      7.593432    3.429431    1.146404
Pd      5.972171    3.429431    3.439212
Pd      8.404061    4.833484    3.439212
Pd      6.782801    4.833484    5.732020
Pd      9.214691    3.429431    5.732020
Pd      5.161542    4.833484    8.024828
Pd      7.593432    3.429431    8.024828
Pd      5.972171    3.429431   10.317636
Pd      8.404061    4.833484   10.317636
Pd      6.782801    4.833484   12.610444
Pd      9.214691    3.429431   12.610444
Pd      0.297762    7.641589    1.146404
Pd      2.729652    6.237536    1.146404
Pd      1.108391    6.237536    3.439212
Pd      3.540281    7.641589    3.439212
Pd      1.919021    7.641589    5.732020
Pd      4.350911    6.237536    5.732020
Pd      0.297762    7.641589    8.024828
Pd      2.729652    6.237536    8.024828
Pd      1.108391    6.237536   10.317636
Pd      3.540281    7.641589   10.317636
Pd      1.919021    7.641589   12.610444
Pd      4.350911    6.237536   12.610444
Pd      5.161542    7.641589    1.146404
Pd      7.593432    6.237536    1.146404
Pd      5.972171    6.237536    3.439212
Pd      8.404061    7.641589    3.439212
Pd      6.782801    7.641589    5.732020
Pd      9.214691    6.237536    5.732020
Pd      5.161542    7.641589    8.024828
Pd      7.593432    6.237536    8.024828
Pd      5.972171    6.237536   10.317636
Pd      8.404061    7.641589   10.317636
Pd      6.782801    7.641589   12.610444
Pd      9.214691    6.237536   12.610444
Pd      0.297762    7.641588   14.903252
Pd      0.297762    4.833484   14.903252
Pd      0.297762    2.025379   14.903252
Pd      2.729652    6.237536   14.903252
Pd      2.729652    3.429431   14.903252
Pd      2.729652    0.621326   14.903252
Pd      5.161541    7.641588   14.903252
Pd      5.161541    4.833484   14.903252
Pd      5.161541    2.025379   14.903252
Pd      7.593433    6.237536   14.903252
Pd      7.593433    3.429431   14.903252
Pd      7.593433    0.621326   14.903252
Pd      0.980558    6.238163   17.186256
Pd      0.973012    3.431276   17.188684
Pd      0.988384    0.624016   17.181327
Pd      3.419140    7.644348   17.179948
Pd      3.404694    4.834985   17.193243
Pd      3.415490    2.033491   17.182714
Pd      5.842612    6.238413   17.189964
Pd      5.835421    3.431206   17.193614
Pd      5.849697    0.623923   17.180447
Pd      8.282474    7.642669   17.181767
Pd      8.266092    4.833871   17.187002
Pd      8.276778    2.026824   17.185756
Pd      1.689465    7.642601   19.451722
Pd      1.667201    4.831995   19.462942
Pd      1.685993    2.028135   19.454344
Pd      4.112512    6.230398   19.464214
Pd      4.109583    3.445705   19.483034
Pd      4.116373    0.626341   19.444563
Pd      6.551472    7.645511   19.450420
Pd      6.528937    4.834892   19.469832
Pd      6.548046    2.026091   19.457995
Pd      8.975245    6.237051   19.455975
Pd      8.967159    3.431744   19.463175
Pd      8.985997    0.621149   19.451707
Pd     -0.077278    7.639418   21.752266
Pd     -0.089076    4.835076   21.766595
Pd     -0.083011    2.022265   21.750665
Pd      2.345892    6.239606   21.747206
Pd      2.336670    3.422963   21.759813
Pd      2.350980    0.618219   21.750829
Pd      4.788156    7.648492   21.733250
Pd      4.769798    4.820508   21.819293
Pd      4.782950    2.013363   21.744667
Pd      7.221404    6.242020   21.749200
Pd      7.210528    3.427210   21.760343
Pd      7.220306    0.619337   21.753135
O       5.072401    5.617783   24.449648
H       5.940238    5.757579   24.013711
H       4.515082    6.296306   24.012242
Pd      0.297762    2.025379   47.146404
Pd      2.729652    0.621326   47.146404
Pd      1.108392    0.621326   49.439212
Pd      3.540281    2.025379   49.439212
Pd      1.919022    2.025379   51.732020
Pd      4.350911    0.621326   51.732020
Pd      5.161541    2.025379   47.146404
Pd      7.593431    0.621326   47.146404
Pd      5.972171    0.621326   49.439212
Pd      8.404061    2.025379   49.439212
Pd      6.782801    2.025379   51.732020
Pd      9.214692    0.621326   51.732020
Pd      0.297762    4.833484   47.146404
Pd      2.729652    3.429431   47.146404
Pd      1.108392    3.429431   49.439212
Pd      3.540281    4.833484   49.439212
Pd      1.919022    4.833484   51.732020
Pd      4.350911    3.429431   51.732020
Pd      5.161541    4.833484   47.146404
Pd      7.593431    3.429431   47.146404
Pd      5.972171    3.429431   49.439212
Pd      8.404061    4.833484   49.439212
Pd      6.782801    4.833484   51.732020
Pd      9.214692    3.429431   51.732020
Pd      0.297762    7.641589   47.146404
Pd      2.729652    6.237536   47.146404
Pd      1.108392    6.237536   49.439212
Pd      3.540281    7.641589   49.439212
Pd      1.919022    7.641589   51.732020
Pd      4.350911    6.237536   51.732020
Pd      5.161541    7.641589   47.146404
Pd      7.593431    6.237536   47.146404
Pd      5.972171    6.237536   49.439212
Pd      8.404061    7.641589   49.439212
Pd      6.782801    7.641589   51.732020
Pd      9.214692    6.237536   51.732020
Pd      0.297762    2.025379   54.024828
Pd      2.729652    0.621326   54.024828
Pd      1.108392    0.621326   56.317636
Pd      3.540281    2.025379   56.317636
Pd      1.919022    2.025379   58.610444
Pd      4.350911    0.621326   58.610444
Pd      0.297762    2.025379   60.903252
Pd      2.729652    0.621326   60.903252
Pd      1.108392    0.621326   63.196060
Pd      3.540281    2.025379   63.196060
Pd      1.919022    2.025379   65.488868
Pd      4.350911    0.621326   65.488868
Pd      5.161541    2.025379   54.024828
Pd      7.593431    0.621326   54.024828
Pd      5.972171    0.621326   56.317636
Pd      8.404061    2.025379   56.317636
Pd      6.782801    2.025379   58.610444
Pd      9.214692    0.621326   58.610444
Pd      5.161541    2.025379   60.903252
Pd      7.593431    0.621326   60.903252
Pd      5.972171    0.621326   63.196060
Pd      8.404061    2.025379   63.196060
Pd      6.782801    2.025379   65.488868
Pd      9.214692    0.621326   65.488868
Pd      0.297762    4.833484   54.024828
Pd      2.729652    3.429431   54.024828
Pd      1.108392    3.429431   56.317636
Pd      3.540281    4.833484   56.317636
Pd      1.919022    4.833484   58.610444
Pd      4.350911    3.429431   58.610444
Pd      0.297762    4.833484   60.903252
Pd      2.729652    3.429431   60.903252
Pd      1.108392    3.429431   63.196060
Pd      3.540281    4.833484   63.196060
Pd      1.919022    4.833484   65.488868
Pd      4.350911    3.429431   65.488868
Pd      5.161541    4.833484   54.024828
Pd      7.593431    3.429431   54.024828
Pd      5.972171    3.429431   56.317636
Pd      8.404061    4.833484   56.317636
Pd      6.782801    4.833484   58.610444
Pd      9.214692    3.429431   58.610444
Pd      5.161541    4.833484   60.903252
Pd      7.593431    3.429431   60.903252
Pd      5.972171    3.429431   63.196060
Pd      8.404061    4.833484   63.196060
Pd      6.782801    4.833484   65.488868
Pd      9.214692    3.429431   65.488868
Pd      0.297762    7.641589   54.024828
Pd      2.729652    6.237536   54.024828
Pd      1.108392    6.237536   56.317636
Pd      3.540281    7.641589   56.317636
Pd      1.919022    7.641589   58.610444
Pd      4.350911    6.237536   58.610444
Pd      0.297762    7.641589   60.903252
Pd      2.729652    6.237536   60.903252
Pd      1.108392    6.237536   63.196060
Pd      3.540281    7.641589   63.196060
Pd      1.919022    7.641589   65.488868
Pd      4.350911    6.237536   65.488868
Pd      5.161541    7.641589   54.024828
Pd      7.593431    6.237536   54.024828
Pd      5.972171    6.237536   56.317636
Pd      8.404061    7.641589   56.317636
Pd      6.782801    7.641589   58.610444
Pd      9.214692    6.237536   58.610444
Pd      5.161541    7.641589   60.903252
Pd      7.593431    6.237536   60.903252
Pd      5.972171    6.237536   63.196060
Pd      8.404061    7.641589   63.196060
Pd      6.782801    7.641589   65.488868
Pd      9.214692    6.237536   65.488868
